Version 4
SHEET 1 1876 916
WIRE 800 -368 624 -368
WIRE 992 -368 800 -368
WIRE 800 -336 800 -368
WIRE 1072 -288 928 -288
WIRE 992 -256 992 -368
WIRE 928 -240 928 -288
WIRE 960 -240 928 -240
WIRE 1072 -224 1072 -288
WIRE 1072 -224 1024 -224
WIRE 1264 -224 1072 -224
WIRE 800 -208 800 -256
WIRE 960 -208 800 -208
WIRE 624 -192 624 -368
WIRE 624 -192 -688 -192
WIRE 800 -160 800 -208
WIRE 1264 -160 1264 -224
WIRE 1520 -160 1264 -160
WIRE 992 -144 992 -192
WIRE 1264 -128 1264 -160
WIRE -688 -112 -688 -192
WIRE 800 -48 800 -80
WIRE 1520 -32 1520 -160
WIRE 624 -16 624 -192
WIRE 1264 -16 1264 -48
WIRE 1488 -16 1264 -16
WIRE 592 0 352 0
WIRE 1680 0 1552 0
WIRE 720 16 656 16
WIRE 864 16 720 16
WIRE 1104 16 928 16
WIRE 1392 16 1104 16
WIRE 1488 16 1392 16
WIRE -688 32 -688 -32
WIRE -688 32 -848 32
WIRE -480 32 -688 32
WIRE -192 32 -400 32
WIRE 16 32 -192 32
WIRE 592 32 80 32
WIRE 1104 48 1104 16
WIRE 1392 48 1392 16
WIRE 1520 80 1520 32
WIRE -688 144 -688 32
WIRE -848 160 -848 32
WIRE 1392 160 1392 128
WIRE 1104 176 1104 128
WIRE 1264 176 1264 -16
WIRE 1264 176 1104 176
WIRE 352 192 352 0
WIRE 432 192 352 192
WIRE 720 192 720 16
WIRE 720 192 512 192
WIRE 1264 224 1264 176
WIRE -192 240 -192 32
WIRE 352 240 352 192
WIRE 1264 352 1264 304
WIRE 352 368 352 320
WIRE -688 496 -688 224
WIRE -192 496 -192 320
WIRE -192 496 -688 496
WIRE 624 496 624 48
WIRE 624 496 -192 496
FLAG 352 368 0
FLAG 1520 80 0
FLAG 1264 352 0
FLAG 1680 0 trigg
IOPIN 1680 0 Out
FLAG 1392 160 0
FLAG -848 160 0
FLAG 992 -144 0
FLAG 800 -48 0
SYMBOL cap 80 16 R90
WINDOW 0 0 32 VBottom 2
WINDOW 3 32 32 VTop 2
SYMATTR InstName C1
SYMATTR Value 1µ
SYMBOL res 528 176 R90
WINDOW 0 0 56 VBottom 2
WINDOW 3 32 56 VTop 2
SYMATTR InstName R4
SYMATTR Value 2k
SYMBOL res 368 336 R180
WINDOW 0 36 76 Left 2
WINDOW 3 36 40 Left 2
SYMATTR InstName R5
SYMATTR Value 1k
SYMBOL cap 928 0 R90
WINDOW 0 0 32 VBottom 2
WINDOW 3 32 32 VTop 2
SYMATTR InstName C2
SYMATTR Value 100µ
SYMBOL res 1088 32 R0
SYMATTR InstName R7
SYMATTR Value 100k
SYMBOL OpAmps\\UniversalOpAmp2 1520 0 R0
SYMATTR InstName U3
SYMBOL res 1248 -144 R0
SYMATTR InstName R8
SYMATTR Value 10k
SYMBOL res 1248 208 R0
SYMATTR InstName R9
SYMATTR Value 10k
SYMBOL res 1376 32 R0
SYMATTR InstName R10
SYMATTR Value 2000k
SYMBOL OpAmps\\UniversalOpAmp2 624 16 R0
SYMATTR InstName U1
SYMBOL Misc\\battery -688 -128 R0
WINDOW 0 -32 56 VBottom 2
WINDOW 3 32 56 VTop 2
WINDOW 123 0 0 Left 0
WINDOW 39 0 0 Left 0
SYMATTR InstName V5
SYMATTR Value 9
SYMBOL Misc\\battery -688 128 R0
WINDOW 0 -32 56 VBottom 2
WINDOW 3 32 56 VTop 2
WINDOW 123 0 0 Left 0
WINDOW 39 0 0 Left 0
SYMATTR InstName V6
SYMATTR Value 9
SYMBOL res -384 16 R90
WINDOW 0 0 56 VBottom 2
WINDOW 3 32 56 VTop 2
SYMATTR InstName R1
SYMATTR Value 2200
SYMBOL current -192 320 R180
WINDOW 0 24 80 Left 2
WINDOW 3 24 0 Left 2
WINDOW 123 0 0 Left 0
WINDOW 39 0 0 Left 0
SYMATTR InstName I1
SYMATTR Value SINE(0 0.0001 2000 0 0 0 0.5)
SYMBOL OpAmps\\UniversalOpAmp2 992 -224 R0
SYMATTR InstName U2
SYMBOL res 784 -176 R0
SYMATTR InstName R2
SYMATTR Value 50k
SYMBOL res 784 -352 R0
SYMATTR InstName R3
SYMATTR Value 40k
TEXT -868 506 Left 2 !.tran 0.01
