Version 4
SHEET 1 1876 916
WIRE -816 -160 -992 -160
WIRE -608 -160 -816 -160
WIRE 400 -160 -608 -160
WIRE 1040 -160 400 -160
WIRE 1296 -160 1040 -160
WIRE 1040 -128 1040 -160
WIRE -816 -64 -816 -160
WIRE -512 -64 -688 -64
WIRE 1296 -32 1296 -160
WIRE 400 -16 400 -160
WIRE 1040 -16 1040 -48
WIRE 1264 -16 1040 -16
WIRE -608 0 -608 -160
WIRE 368 0 160 0
WIRE 1456 0 1328 0
WIRE -992 16 -992 -160
WIRE -688 16 -688 -64
WIRE -640 16 -688 16
WIRE 496 16 432 16
WIRE 640 16 496 16
WIRE 880 16 704 16
WIRE 1168 16 880 16
WIRE 1264 16 1168 16
WIRE -512 32 -512 -64
WIRE -512 32 -576 32
WIRE -400 32 -512 32
WIRE -192 32 -320 32
WIRE -64 32 -192 32
WIRE 368 32 0 32
WIRE -816 48 -816 16
WIRE -640 48 -816 48
WIRE 880 48 880 16
WIRE 1168 48 1168 16
WIRE -816 80 -816 48
WIRE 1296 80 1296 32
WIRE 160 112 160 0
WIRE 240 112 160 112
WIRE 496 112 496 16
WIRE 496 112 320 112
WIRE -512 128 -512 32
WIRE -192 160 -192 32
WIRE 160 160 160 112
WIRE 1168 160 1168 128
WIRE 880 176 880 128
WIRE 1040 176 1040 -16
WIRE 1040 176 880 176
WIRE 1040 224 1040 176
WIRE 160 288 160 240
WIRE 1040 352 1040 304
WIRE -992 368 -992 96
WIRE -816 368 -816 160
WIRE -816 368 -992 368
WIRE -608 368 -608 64
WIRE -608 368 -816 368
WIRE -192 368 -192 240
WIRE -192 368 -608 368
WIRE 400 368 400 48
WIRE 400 368 -192 368
FLAG 160 288 0
FLAG 1296 80 0
FLAG 1040 352 0
FLAG 1456 0 trigg
IOPIN 1456 0 Out
FLAG 1168 160 0
FLAG -512 128 0
SYMBOL cap 0 16 R90
WINDOW 0 0 32 VBottom 2
WINDOW 3 32 32 VTop 2
SYMATTR InstName C1
SYMATTR Value 1µ
SYMBOL res 336 96 R90
WINDOW 0 0 56 VBottom 2
WINDOW 3 32 56 VTop 2
SYMATTR InstName R4
SYMATTR Value 2k
SYMBOL res 176 256 R180
WINDOW 0 36 76 Left 2
WINDOW 3 36 40 Left 2
SYMATTR InstName R5
SYMATTR Value 1k
SYMBOL cap 704 0 R90
WINDOW 0 0 32 VBottom 2
WINDOW 3 32 32 VTop 2
SYMATTR InstName C2
SYMATTR Value 100µ
SYMBOL res 864 32 R0
SYMATTR InstName R7
SYMATTR Value 100k
SYMBOL OpAmps\\UniversalOpAmp2 1296 0 R0
SYMATTR InstName U3
SYMBOL res 1024 -144 R0
SYMATTR InstName R8
SYMATTR Value 10k
SYMBOL res 1024 208 R0
SYMATTR InstName R9
SYMATTR Value 10k
SYMBOL res 1152 32 R0
SYMATTR InstName R10
SYMATTR Value 2000k
SYMBOL OpAmps\\UniversalOpAmp2 400 16 R0
SYMATTR InstName U1
SYMBOL res -304 16 R90
WINDOW 0 0 56 VBottom 2
WINDOW 3 32 56 VTop 2
SYMATTR InstName R1
SYMATTR Value 2200
SYMBOL current -192 240 R180
WINDOW 0 24 80 Left 2
WINDOW 3 -166 -259 Left 2
WINDOW 123 0 0 Left 0
WINDOW 39 0 0 Left 0
SYMATTR InstName I1
SYMATTR Value SINE(0 0.0001 2000 0 0 0 0.5)
SYMBOL OpAmps\\UniversalOpAmp2 -608 32 R0
SYMATTR InstName U4
SYMBOL Misc\\battery -992 0 R0
WINDOW 0 -32 56 VBottom 2
WINDOW 3 32 56 VTop 2
WINDOW 123 0 0 Left 0
WINDOW 39 0 0 Left 0
SYMATTR InstName V1
SYMATTR Value 9
SYMBOL res -832 -80 R0
SYMATTR InstName R6
SYMATTR Value 100k
SYMBOL res -832 64 R0
SYMATTR InstName R11
SYMATTR Value 100k
TEXT 32 -240 Left 2 !.tran 0.01
