Version 4
SHEET 1 1556 680
WIRE 976 -176 864 -176
WIRE 1280 -176 976 -176
WIRE 864 -144 864 -176
WIRE 976 -128 976 -176
WIRE -16 -96 -48 -96
WIRE 96 -96 64 -96
WIRE 624 -96 96 -96
WIRE 96 -64 96 -96
WIRE -48 -48 -48 -96
WIRE 864 -48 864 -64
WIRE 1280 -32 1280 -176
WIRE 624 -16 624 -96
WIRE 976 -16 976 -48
WIRE 1248 -16 976 -16
WIRE 592 0 496 0
WIRE 1440 0 1312 0
WIRE 688 16 656 16
WIRE 720 16 688 16
WIRE 816 16 784 16
WIRE 1152 16 816 16
WIRE 1248 16 1152 16
WIRE -16 32 -48 32
WIRE 96 32 96 16
WIRE 96 32 64 32
WIRE 192 32 96 32
WIRE 240 32 192 32
WIRE 352 32 304 32
WIRE 592 32 352 32
WIRE 96 48 96 32
WIRE 816 48 816 16
WIRE 1152 48 1152 16
WIRE 352 64 352 32
WIRE 624 80 624 48
WIRE 1280 80 1280 32
WIRE 96 144 96 128
WIRE 1152 160 1152 128
WIRE -48 176 -48 32
WIRE 192 176 192 32
WIRE 192 176 -48 176
WIRE 352 176 352 144
WIRE 496 176 496 0
WIRE 496 176 352 176
WIRE 528 176 496 176
WIRE 688 176 688 16
WIRE 688 176 608 176
WIRE 816 176 816 128
WIRE 976 176 976 -16
WIRE 976 176 816 176
WIRE 496 224 496 176
WIRE 976 224 976 176
WIRE -48 240 -48 176
WIRE 496 352 496 304
WIRE 976 352 976 304
WIRE -48 400 -48 384
FLAG 96 144 0
FLAG -48 400 0
FLAG 624 80 0
FLAG 496 352 0
FLAG -48 -48 0
FLAG 1280 80 0
FLAG 976 352 0
FLAG 864 -48 0
FLAG 1440 0 trigg
IOPIN 1440 0 Out
FLAG 1152 160 0
SYMBOL res 80 -80 R0
SYMATTR InstName R1
SYMATTR Value 5k
SYMBOL res 80 32 R0
SYMATTR InstName R2
SYMATTR Value 5k
SYMBOL res 80 16 R90
WINDOW 0 0 56 VBottom 2
WINDOW 3 32 56 VTop 2
SYMATTR InstName R3
SYMATTR Value 10k
SYMBOL cap 304 16 R90
WINDOW 0 0 32 VBottom 2
WINDOW 3 32 32 VTop 2
SYMATTR InstName C1
SYMATTR Value 100µ
SYMBOL OpAmps\\UniversalOpAmp 624 16 R0
SYMATTR InstName U1
SYMBOL res 624 160 R90
WINDOW 0 0 56 VBottom 2
WINDOW 3 32 56 VTop 2
SYMATTR InstName R4
SYMATTR Value 2k
SYMBOL res 512 320 R180
WINDOW 0 36 76 Left 2
WINDOW 3 36 40 Left 2
SYMATTR InstName R5
SYMATTR Value 1k
SYMBOL res 336 48 R0
SYMATTR InstName R6
SYMATTR Value 1000k
SYMBOL Misc\\battery 80 -96 R90
WINDOW 0 -32 56 VBottom 2
WINDOW 3 32 56 VTop 2
WINDOW 123 0 0 Left 0
WINDOW 39 0 0 Left 0
SYMATTR InstName V1
SYMATTR Value 9
SYMBOL voltage -48 224 R0
WINDOW 123 0 0 Left 0
WINDOW 39 0 0 Left 0
WINDOW 3 44 54 Left 2
SYMATTR Value SINE(0 0.1 2000 0 0 0 0.5)
SYMATTR InstName V2
SYMBOL cap 784 0 R90
WINDOW 0 0 32 VBottom 2
WINDOW 3 32 32 VTop 2
SYMATTR InstName C2
SYMATTR Value 100µ
SYMBOL res 800 32 R0
SYMATTR InstName R7
SYMATTR Value 100k
SYMBOL cap -64 320 R0
SYMATTR InstName C3
SYMATTR Value 10µ
SYMBOL OpAmps\\UniversalOpAmp2 1280 0 R0
SYMATTR InstName U3
SYMBOL res 960 -144 R0
SYMATTR InstName R8
SYMATTR Value 10k
SYMBOL res 960 208 R0
SYMATTR InstName R9
SYMATTR Value 10k
SYMBOL voltage 864 -160 R0
WINDOW 123 0 0 Left 0
WINDOW 39 0 0 Left 0
SYMATTR InstName V3
SYMATTR Value 5
SYMBOL res 1136 32 R0
SYMATTR InstName R10
SYMATTR Value 2000k
TEXT 40 384 Left 2 !.tran 0 0.01 0
